dynawo/sources/Modeler/DataInterface/PowSyblIIDM/test/resources/switch_same_bus.xiidm
<?xml version="1.0" encoding="UTF-8"?>
<iidm:network xmlns:iidm="http://www.powsybl.org/schema/iidm/1_4" id="test" caseDate="2022-01-01T00:00:00.000+01:00" forecastDistance="0" sourceFormat="test">
    <iidm:substation id="S">
        <iidm:voltageLevel id="VL1" nominalV="400.0" lowVoltageLimit="380.0" highVoltageLimit="420.0" topologyKind="BUS_BREAKER">
            <iidm:busBreakerTopology>
                <iidm:bus id="BUS1"/>
                <iidm:bus id="BUS2"/>
                <iidm:switch id="SwSameBus" name="SwNameSameBus" kind="BREAKER" retained="true" fictitious="false" open="false" bus1="BUS1" bus2="BUS1"/>
                <iidm:switch id="Sw" name="SwName" kind="BREAKER" retained="true" fictitious="false" open="false" bus1="BUS1" bus2="BUS2"/>
            </iidm:busBreakerTopology>
        </iidm:voltageLevel>
    </iidm:substation>
</iidm:network>
